Version 4
SHEET 1 1316 760
WIRE 32 48 -80 48
WIRE 160 48 32 48
WIRE 304 48 160 48
WIRE 480 48 384 48
WIRE 576 48 480 48
WIRE 928 48 656 48
WIRE 160 96 160 48
WIRE 480 96 480 48
WIRE 480 96 336 96
WIRE 928 112 928 48
WIRE -80 144 -80 48
WIRE 32 176 32 48
WIRE 624 192 432 192
WIRE 800 192 624 192
WIRE 928 192 928 176
WIRE 928 192 800 192
WIRE 336 208 336 96
WIRE 368 208 336 208
WIRE 448 224 432 224
WIRE 800 224 800 192
WIRE 160 240 160 176
WIRE 272 240 160 240
WIRE 624 240 624 192
WIRE 928 240 928 192
WIRE 336 272 336 208
WIRE 272 288 272 240
WIRE 160 320 160 240
WIRE 336 352 336 336
WIRE 448 352 448 224
WIRE 448 352 336 352
WIRE 624 400 624 320
WIRE 624 400 160 400
WIRE -80 480 -80 224
WIRE 32 480 32 240
WIRE 32 480 -80 480
WIRE 160 480 32 480
WIRE 272 480 272 352
WIRE 272 480 160 480
WIRE 448 480 448 352
WIRE 448 480 272 480
WIRE 800 480 800 448
WIRE 800 480 448 480
WIRE 928 480 928 304
WIRE 928 480 800 480
WIRE -80 496 -80 480
FLAG -80 496 0
SYMBOL voltage -80 128 R0
WINDOW 3 24 44 Left 2
WINDOW 123 0 0 Left 0
WINDOW 39 0 0 Left 0
SYMATTR Value 20
SYMATTR InstName V1
SYMBOL ind 288 64 R270
WINDOW 0 32 56 VTop 2
WINDOW 3 5 56 VBottom 2
SYMATTR InstName L1
SYMATTR Value 10µ
SYMBOL ind 560 64 R270
WINDOW 0 32 56 VTop 2
WINDOW 3 5 56 VBottom 2
SYMATTR InstName L2
SYMATTR Value 2.6µ
SYMBOL cap 912 112 R0
SYMATTR InstName C1
SYMATTR Value 100p
SYMBOL cap 912 240 R0
SYMATTR InstName C2
SYMATTR Value 4.7n
SYMBOL Res 608 224 R0
WINDOW 3 35 72 Left 2
SYMATTR Value 1000
SYMATTR InstName R2
SYMBOL Res 144 304 R0
SYMATTR InstName R4
SYMATTR Value 7500
SYMBOL Res 144 384 R0
SYMATTR InstName R5
SYMATTR Value {r}
SYMBOL cap 320 272 R0
SYMATTR InstName C3
SYMATTR Value {Coss}
SYMBOL Cap 16 176 R0
SYMATTR InstName C4
SYMATTR Value 10µ
SYMBOL AutoGenerated/irfp260n 400 208 R0
SYMATTR InstName U1
SYMBOL Res 144 80 R0
SYMATTR InstName R1
SYMATTR Value 1000
SYMBOL zener 288 352 R180
WINDOW 0 24 64 Left 2
WINDOW 3 27 82 Left 2
SYMATTR InstName D1
SYMATTR Value MMBZ12VALY
SYMBOL AutoGenerated/SMBJ15CA 800 336 R90
SYMATTR InstName U2
TEXT -72 608 Left 2 !.tran 0 500u .1u uic
TEXT -72 560 Left 2 !.params r =  4700\n.params Coss = 603p
TEXT 248 552 Left 2 ;Changing Coss will change the output voltage \nof the ocsillating circuit, 603pF will result in a coltage of around \n1.2kV, 1.8nF will give 2kV\nThe plasma will no doubt effect this but I don't know how to\nsimulate that.\nYou can easily change the resonating frequency by simply\nchanging the capacitane of the caps on the right while ensuring\nthey keep the same ratio to each other as f = 1/sqrt(LC) doubling \nfrequency will require 1/4 capacitance
