Version 4
SHEET 1 1288 680
WIRE 304 48 -80 48
WIRE 448 48 384 48
WIRE 576 48 448 48
WIRE 928 48 656 48
WIRE 1104 48 928 48
WIRE 1184 48 1104 48
WIRE 1248 48 1184 48
WIRE 1104 96 1104 48
WIRE 1184 96 1184 48
WIRE 1248 96 1248 48
WIRE 928 112 928 48
WIRE 448 128 448 48
WIRE 448 128 384 128
WIRE -80 144 -80 48
WIRE 384 176 384 128
WIRE 448 192 448 128
WIRE 480 192 448 192
WIRE 576 208 544 208
WIRE 624 208 576 208
WIRE 736 208 704 208
WIRE 800 208 736 208
WIRE 848 208 800 208
WIRE 928 208 928 176
WIRE 928 208 848 208
WIRE 1104 208 1104 176
WIRE 1184 208 1184 160
WIRE 1184 208 1104 208
WIRE 1248 208 1248 160
WIRE 1248 208 1184 208
WIRE 480 224 448 224
WIRE 928 240 928 208
WIRE 1184 240 1184 208
WIRE 624 256 624 208
WIRE 800 256 800 208
WIRE 848 256 848 208
WIRE 384 304 384 240
WIRE 448 304 448 224
WIRE 448 304 384 304
WIRE 624 400 624 336
WIRE -80 480 -80 224
WIRE 448 480 448 304
WIRE 448 480 -80 480
WIRE 624 480 448 480
WIRE 800 480 800 320
WIRE 800 480 624 480
WIRE 848 480 848 320
WIRE 848 480 800 480
WIRE 928 480 928 304
WIRE 928 480 848 480
WIRE -80 496 -80 480
FLAG -80 496 0
FLAG 576 208 g
FLAG 736 208 k
FLAG 1184 240 0
SYMBOL voltage -80 128 R0
WINDOW 3 24 44 Left 2
WINDOW 123 0 0 Left 0
WINDOW 39 0 0 Left 0
SYMATTR InstName V1
SYMATTR Value 20
SYMBOL ind 288 64 R270
WINDOW 0 32 56 VTop 2
WINDOW 3 5 56 VBottom 2
SYMATTR InstName L1
SYMATTR Value 10µ
SYMBOL ind 560 64 R270
WINDOW 0 32 56 VTop 2
WINDOW 3 5 56 VBottom 2
SYMATTR InstName L2
SYMATTR Value 2.6µ
SYMBOL cap 912 112 R0
SYMATTR InstName C1
SYMATTR Value 100p
SYMBOL cap 912 240 R0
SYMATTR InstName C2
SYMATTR Value 4.7n
SYMBOL irfp260n 512 208 M0
SYMATTR InstName U1
SYMBOL zener 832 256 R0
SYMATTR InstName D1
SYMATTR Value BZX84B15VL
SYMBOL zener 816 320 R180
WINDOW 0 24 64 Left 2
WINDOW 3 24 0 Left 2
SYMATTR InstName D2
SYMATTR Value BZX84C15L
SYMBOL cap 368 176 R0
SYMATTR InstName C3
SYMATTR Value 603p
SYMBOL voltage 624 384 R0
WINDOW 3 24 44 Left 2
WINDOW 123 0 0 Left 0
WINDOW 39 0 0 Left 0
SYMATTR InstName V2
SYMATTR Value 20
SYMBOL res 720 192 R90
WINDOW 0 0 56 VBottom 2
WINDOW 3 32 56 VTop 2
SYMATTR InstName R1
SYMATTR Value 4.2
SYMBOL res 640 352 R180
WINDOW 0 36 76 Left 2
WINDOW 3 36 40 Left 2
SYMATTR InstName R2
SYMATTR Value 1000
SYMBOL ind 1088 80 R0
SYMATTR InstName L3
SYMATTR Value 24µ
SYMBOL cap 1168 96 R0
SYMATTR InstName C4
SYMATTR Value 1.6p
SYMBOL cap 1232 96 R0
SYMATTR InstName C5
SYMATTR Value 9p
TEXT -72 544 Left 2 !.params Vgb = 5
TEXT -72 576 Left 2 !.ic V(g)={Vgb} V(k)={Vgb}
TEXT -72 608 Left 2 !.tran 0 500u .1u uic
